063600 PSE:null SCR:null PRO:null
  SMI2MOL 

 20 21  0  0  1  0  0  0  0  0999 V2000
   35.4400    8.9970   77.4800 C   0  0  0  0  0  0  0  0  0  0  0  0
   35.1440    8.3610   78.8010 C   0  0  0  0  0  0  0  0  0  0  0  0
   34.4770    7.3190   78.7440 N   0  0  0  0  0  0  0  0  0  0  0  0
   34.0310    6.6630   77.7310 N   0  0  0  0  0  0  0  0  0  0  0  0
   33.4470    6.2890   76.7660 C   0  0  0  0  0  0  0  0  0  0  0  0
   32.3890    7.3320   76.5890 C   0  0  0  0  0  0  0  0  0  0  0  0
   33.9230    5.0390   76.1150 C   0  0  0  0  0  0  0  0  0  0  0  0
   35.2880    5.1000   75.7400 C   0  0  0  0  0  0  0  0  0  0  0  0
   35.9380    3.9750   75.2490 C   0  0  0  0  0  0  0  0  0  0  0  0
   35.2300    2.7770   75.1120 C   0  0  0  0  0  0  0  0  0  0  0  0
   35.8780    1.6960   74.6450 F   0  0  0  0  0  0  0  0  0  0  0  0
   33.8770    2.7210   75.4550 C   0  0  0  0  0  0  0  0  0  0  0  0
   33.2140    3.8590   75.9540 C   0  0  0  0  0  0  0  0  0  0  0  0
   35.6500    8.9050   80.0980 C   0  0  0  0  0  0  0  0  0  0  0  0
   35.4940   10.2380   80.4720 C   0  0  0  0  0  0  0  0  0  0  0  0
   36.0460   10.6930   81.6750 C   0  0  0  0  0  0  0  0  0  0  0  0
   36.7530    9.8260   82.5080 C   0  0  0  0  0  0  0  0  0  0  0  0
   37.3120   10.2780   83.6470 F   0  0  0  0  0  0  0  0  0  0  0  0
   36.8970    8.4870   82.1440 C   0  0  0  0  0  0  0  0  0  0  0  0
   36.3500    8.0200   80.9440 C   0  0  0  0  0  0  0  0  0  0  0  0
  1  2  1  0  0  0  0
  2  3  2  0  0  0  0
  3  4  1  0  0  0  0
  4  5  2  0  0  0  0
  5  6  1  0  0  0  0
  5  7  1  0  0  0  0
  7 13  2  0  0  0  0
  7  8  1  0  0  0  0
  8  9  2  0  0  0  0
  9 10  1  0  0  0  0
 10 11  1  0  0  0  0
 10 12  2  0  0  0  0
 12 13  1  0  0  0  0
  2 14  1  0  0  0  0
 14 20  2  0  0  0  0
 14 15  1  0  0  0  0
 15 16  2  0  0  0  0
 16 17  1  0  0  0  0
 17 18  1  0  0  0  0
 17 19  2  0  0  0  0
 19 20  1  0  0  0  0
M  END
> <IX>
1

> <projPath>
/NewAutoShim/aurora/

> <DOK>
-15

> <PMF>
-48

> <PLP>
-61

> <$NAM>
063600

$$$$
